test_cases/Belgian_transmission_grid_synthetic_2023.json
{"bus":{"1":{"lat":50.846667,"zone":1,"lon":4.3525,"bus_i":1,"base_kV":380.0,"full_name_kV":"BE_aggregated_380","bus_type":3,"name":"BE_aggregated","vmax":1.1,"source_id":["bus",1],"area":1,"full_name":"BE_aggregated","vmin":0.9,"index":1,"va":0.0,"transformer":false,"name_kV":"BE_aggregated_380","vm":1.0,"ZIP_code":1000},"66":{"lat":51.690579,"zone":1,"lon":2.968824,"bus_i":66,"base_kV":220.0,"full_name_kV":"BANK ZONDER NAAM_220","bus_type":2,"name":"ZNAAM","vmax":1.1,"source_id":["bus",66],"area":1,"full_name":"BANK ZONDER NAAM","vmin":0.9,"index":66,"va":0.0,"transformer":false,"name_kV":"ZNAAM_220","vm":1.0,"ZIP_code":0},"26":{"lat":51.2747463,"zone":1,"lon":3.2292277,"bus_i":26,"base_kV":380.0,"full_name_kV":"GEZELLE_380","bus_type":2,"name":"GEZEL","vmax":1.1,"source_id":["bus",26],"area":1,"full_name":"GEZELLE","vmin":0.9,"index":26,"va":0.0,"transformer":false,"name_kV":"GEZEL_380","vm":1.0,"ZIP_code":8380},"27":{"lat":51.331382,"zone":1,"lon":3.2078842,"bus_i":27,"base_kV":380.0,"full_name_kV":"OFFSHORE ON STEVIN_380","bus_type":2,"name":"STEVN","vmax":1.1,"source_id":["bus",27],"area":1,"full_name":"OFFSHORE ON STEVIN","vmin":0.9,"index":27,"va":0.0,"transformer":false,"name_kV":"STEVN_380","vm":1.0,"ZIP_code":8380},"61":{"lat":51.331382,"zone":1,"lon":3.2078842,"bus_i":61,"base_kV":220.0,"full_name_kV":"OFFSHORE ON STEVIN_220","bus_type":2,"name":"STEVN","vmax":1.1,"source_id":["bus",61],"area":1,"full_name":"OFFSHORE ON STEVIN","vmin":0.9,"index":61,"va":0.0,"transformer":false,"name_kV":"STEVN_220","vm":1.0,"ZIP_code":8380},"28":{"lat":51.2749,"zone":1,"lon":3.22925,"bus_i":28,"base_kV":380.0,"full_name_kV":"NEMO_380","bus_type":2,"name":"NEMO ","vmax":1.1,"source_id":["bus",28],"area":1,"full_name":"NEMO","vmin":0.9,"index":28,"va":0.0,"transformer":false,"name_kV":"NEMO _380","vm":1.0,"ZIP_code":8380},"128":{"lat":51.2965,"zone":"DE00","lon":1.3192,"bus_i":128,"base_kV":380.0,"full_name_kV":"UK00_380","bus_type":2,"name":"UK00","vmax":1.1,"source_id":["bus",128],"area":1,"full_name":"UK00","vmin":0.9,"index":128,"va":0.0,"transformer":false,"name_kV":"UK00_380","vm":1.0,"ZIP_code":4500},"60":{"lat":51.331382,"zone":1,"lon":3.2078842,"bus_i":60,"base_kV":220.0,"full_name_kV":"OFFSHORE ON STEVIN_220","bus_type":2,"name":"OS2ST","vmax":1.1,"source_id":["bus",60],"area":1,"full_name":"OFFSHORE ON STEVIN","vmin":0.9,"index":60,"va":0.0,"transformer":false,"name_kV":"OS2ST_220","vm":1.0,"ZIP_code":8380}},"source_type":"xlsx Elia data","dcpol":2,"name":"Belgian grid data","dcline":[],"source_version":"1.0","gen":{"4":{"start_up_cost":150,"substation_full_name_kV":"BE_aggregated_380","mbase":100.0,"qmax":0.9049999999999999,"name":"Oil shale old","installed_capacity":1.8099999999999998,"substation_full_name":"BE_aggregated","vg":1.0,"gen_type":"LF","fuel_type":"TJ","substation_short_name_kV":"BE_aggregated_380","substation":"BE_aggregated_380","C02_emission":0.36,"qmin":-0.9049999999999999,"ncost":2,"pmin":0.0,"zone":"BE00","model":2,"startup":0.0,"qg":0.0,"gen_bus":1,"NOx_emission":0.8049,"source_id":["gen",1],"index":1,"pg":0.09,"substation_short_name":"BE_aggregated","pmax":1.8099999999999998,"cost":[150,0.0],"gen_status":1,"qc2min":0.0,"SOx_emission":1.1573,"inertia_constant":4,"type":"Oil shale old"},"1":{"start_up_cost":0,"substation_full_name_kV":"BE_aggregated_380","mbase":100.0,"qmax":4.597,"name":"Other RES","installed_capacity":9.194,"substation_full_name":"BE_aggregated","vg":1.0,"gen_type":"Other","fuel_type":"CL","substation_short_name_kV":"BE_aggregated_380","substation":"BE_aggregated_380","C02_emission":0,"qmin":-4.597,"ncost":2,"pmin":0.0,"zone":"BE00","model":2,"startup":0.0,"qg":0.0,"gen_bus":1,"NOx_emission":0.2334,"source_id":["gen",1],"index":1,"pg":0.09,"substation_short_name":"BE_aggregated","pmax":9.194,"cost":[60,0.0],"gen_status":1,"qc2min":0.0,"SOx_emission":0.0046,"inertia_constant":0,"type":"Other RES"},"29":{"start_up_cost":0,"qc1max":0.0,"substation_full_name_kV":"BANK ZONDER NAAM_220","mbase":100.0,"pc2":0.0,"qmax":1.85,"pc1":0.0,"name":"Norther Offshore WP","installed_capacity":3.7,"owner":"Electrabel","substation_full_name":"BANK ZONDER NAAM","vg":1.0,"gen_type":"WOFF","fuel_type":"missing","substation_short_name_kV":"ZNAAM_220","substation":"ZNAAM","C02_emission":0,"qmin":-1.85,"qc1min":0.0,"ncost":2,"pmin":0.0,"zone":"BE00","model":2,"startup":0.0,"qc2max":0.0,"qg":0.0,"gen_bus":66,"NOx_emission":0,"ramp_10":0.0,"source_id":["gen",29],"index":29,"ramp_q":0.0,"ramp_30":0.0,"apf":0.0,"pg":3.7,"shutdown":0.0,"substation_short_name":"ZNAAM","ramp_agc":0.0,"pmax":3.7,"cost":[59,0.0],"gen_status":1,"qc2min":0.0,"SOx_emission":0,"inertia_constant":0,"type":"Offshore Wind"},"2":{"start_up_cost":90,"substation_full_name_kV":"BE_aggregated_380","mbase":100.0,"qmax":176.64499999999995,"name":"Gas CCGT new","installed_capacity":353.2899999999999,"substation_full_name":"BE_aggregated","vg":1.0,"gen_type":"NG","fuel_type":"WKK","substation_short_name_kV":"BE_aggregated_380","substation":"BE_aggregated_380","C02_emission":0.20520000000000002,"qmin":-176.64499999999995,"ncost":2,"pmin":0.0,"zone":"BE00","model":2,"startup":0.0,"qg":0.0,"gen_bus":1,"NOx_emission":0.2334,"source_id":["gen",1],"index":1,"pg":0.09,"substation_short_name":"BE_aggregated","pmax":353.2899999999999,"cost":[89,0.0],"gen_status":1,"qc2min":0.0,"SOx_emission":0.0046,"inertia_constant":5,"type":"Gas CCGT new"},"25":{"start_up_cost":0,"qc1max":0.0,"substation_full_name_kV":"BANK ZONDER NAAM_220","mbase":100.0,"pc2":0.0,"qmax":0.855,"pc1":0.0,"name":"Belwind Phase 1","installed_capacity":1.71,"owner":"Electrabel","substation_full_name":"BANK ZONDER NAAM","vg":1.0,"gen_type":"WOFF","fuel_type":"missing","substation_short_name_kV":"ZNAAM_220","substation":"ZNAAM","C02_emission":0,"qmin":-0.855,"qc1min":0.0,"ncost":2,"pmin":0.0,"zone":"BE00","model":2,"startup":0.0,"qc2max":0.0,"qg":0.0,"gen_bus":66,"NOx_emission":0,"ramp_10":0.0,"source_id":["gen",25],"index":25,"ramp_q":0.0,"ramp_30":0.0,"apf":0.0,"pg":1.71,"shutdown":0.0,"substation_short_name":"ZNAAM","ramp_agc":0.0,"pmax":1.71,"cost":[59,0.0],"gen_status":1,"qc2min":0.0,"SOx_emission":0,"inertia_constant":0,"type":"Offshore Wind"},"41":{"start_up_cost":0,"qc1max":0.0,"substation_full_name_kV":"BANK ZONDER NAAM_220","mbase":100.0,"pc2":0.0,"qmax":0.825,"pc1":0.0,"name":"Nobelwind Offshore Windpark","installed_capacity":1.65,"owner":"Luminus","substation_full_name":"BANK ZONDER NAAM","vg":1.0,"gen_type":"WOFF","fuel_type":"missing","substation_short_name_kV":"ZNAAM_220","substation":"ZNAAM","C02_emission":0,"qmin":-0.825,"qc1min":0.0,"ncost":2,"pmin":0.0,"zone":"BE00","model":2,"startup":0.0,"qc2max":0.0,"qg":0.0,"gen_bus":66,"NOx_emission":0,"ramp_10":0.0,"source_id":["gen",41],"index":41,"ramp_q":0.0,"ramp_30":0.0,"apf":0.0,"pg":1.65,"shutdown":0.0,"substation_short_name":"ZNAAM","ramp_agc":0.0,"pmax":1.65,"cost":[59,0.0],"gen_status":1,"qc2min":0.0,"SOx_emission":0,"inertia_constant":0,"type":"Offshore Wind"},"40":{"start_up_cost":0,"qc1max":0.0,"substation_full_name_kV":"BANK ZONDER NAAM_220","mbase":100.0,"pc2":0.0,"qmax":1.535,"pc1":0.0,"name":"Rentel Offshore WP","installed_capacity":3.07,"owner":"Lampiris","substation_full_name":"BANK ZONDER NAAM","vg":1.0,"gen_type":"WOFF","fuel_type":"missing","substation_short_name_kV":"ZNAAM_220","substation":"ZNAAM","C02_emission":0,"qmin":-1.535,"qc1min":0.0,"ncost":2,"pmin":0.0,"zone":"BE00","model":2,"startup":0.0,"qc2max":0.0,"qg":0.0,"gen_bus":66,"NOx_emission":0,"ramp_10":0.0,"source_id":["gen",40],"index":40,"ramp_q":0.0,"ramp_30":0.0,"apf":0.0,"pg":3.07,"shutdown":0.0,"substation_short_name":"ZNAAM","ramp_agc":0.0,"pmax":3.07,"cost":[59,0.0],"gen_status":1,"qc2min":0.0,"SOx_emission":0,"inertia_constant":0,"type":"Offshore Wind"},"38":{"start_up_cost":0,"qc1max":0.0,"substation_full_name_kV":"BANK ZONDER NAAM_220","mbase":100.0,"pc2":0.0,"qmax":0.89,"pc1":0.0,"name":"Thorntonbank - C-Power - Area SW","installed_capacity":1.78,"owner":"Eneco Energy Trade","substation_full_name":"BANK ZONDER NAAM","vg":1.0,"gen_type":"WOFF","fuel_type":"missing","substation_short_name_kV":"ZNAAM_220","substation":"ZNAAM","C02_emission":0,"qmin":-0.89,"qc1min":0.0,"ncost":2,"pmin":0.0,"zone":"BE00","model":2,"startup":0.0,"qc2max":0.0,"qg":0.0,"gen_bus":66,"NOx_emission":0,"ramp_10":0.0,"source_id":["gen",38],"index":38,"ramp_q":0.0,"ramp_30":0.0,"apf":0.0,"pg":1.78,"shutdown":0.0,"substation_short_name":"ZNAAM","ramp_agc":0.0,"pmax":1.78,"cost":[59,0.0],"gen_status":1,"qc2min":0.0,"SOx_emission":0,"inertia_constant":0,"type":"Offshore Wind"},"7":{"start_up_cost":0,"substation_full_name_kV":"BE_aggregated_380","mbase":100.0,"qmax":32.374999999999865,"name":"Solar PV","installed_capacity":64.74999999999973,"substation_full_name":"BE_aggregated","vg":1.0,"gen_type":"PV","fuel_type":"Solar_PV","substation_short_name_kV":"BE_aggregated_380","substation":"BE_aggregated_380","C02_emission":0,"qmin":-32.374999999999865,"ncost":2,"pmin":0.0,"zone":"BE00","model":2,"startup":0.0,"qg":0.0,"gen_bus":1,"NOx_emission":0,"source_id":["gen",1],"index":1,"pg":0.09,"substation_short_name":"BE_aggregated","pmax":64.74999999999973,"cost":[18,0.0],"gen_status":1,"qc2min":0.0,"SOx_emission":0,"inertia_constant":0,"type":"Solar PV"},"44":{"start_up_cost":0,"qc1max":0.0,"substation_full_name_kV":"BANK ZONDER NAAM_220","mbase":100.0,"pc2":0.0,"qmax":1.095,"pc1":0.0,"name":"Northwester 2","installed_capacity":2.19,"owner":"RWE Supply & Trading","substation_full_name":"BANK ZONDER NAAM","vg":1.0,"gen_type":"WOFF","fuel_type":"missing","substation_short_name_kV":"ZNAAM_220","substation":"ZNAAM","C02_emission":0,"qmin":-1.095,"qc1min":0.0,"ncost":2,"pmin":0.0,"zone":"BE00","model":2,"startup":0.0,"qc2max":0.0,"qg":0.0,"gen_bus":66,"NOx_emission":0,"ramp_10":0.0,"source_id":["gen",44],"index":44,"ramp_q":0.0,"ramp_30":0.0,"apf":0.0,"pg":2.19,"shutdown":0.0,"substation_short_name":"ZNAAM","ramp_agc":0.0,"pmax":2.19,"cost":[59,0.0],"gen_status":1,"qc2min":0.0,"SOx_emission":0,"inertia_constant":0,"type":"Offshore Wind"},"45":{"start_up_cost":0,"qc1max":0.0,"substation_full_name_kV":"BANK ZONDER NAAM_220","mbase":100.0,"pc2":0.0,"qmax":0.74,"pc1":0.0,"name":"Thorntonbank - C-Power - Area NE","installed_capacity":1.48,"owner":"RWE Supply & Trading","substation_full_name":"BANK ZONDER NAAM","vg":1.0,"gen_type":"WOFF","fuel_type":"missing","substation_short_name_kV":"ZNAAM_220","substation":"ZNAAM","C02_emission":0,"qmin":-0.74,"qc1min":0.0,"ncost":2,"pmin":0.0,"zone":"BE00","model":2,"startup":0.0,"qc2max":0.0,"qg":0.0,"gen_bus":66,"NOx_emission":0,"ramp_10":0.0,"source_id":["gen",45],"index":45,"ramp_q":0.0,"ramp_30":0.0,"apf":0.0,"pg":1.48,"shutdown":0.0,"substation_short_name":"ZNAAM","ramp_agc":0.0,"pmax":1.48,"cost":[59,0.0],"gen_status":1,"qc2min":0.0,"SOx_emission":0,"inertia_constant":0,"type":"Offshore Wind"},"8":{"start_up_cost":1000,"substation_full_name_kV":"BE_aggregated_380","mbase":100.0,"qmax":29.715,"name":"Nuclear","installed_capacity":59.43,"substation_full_name":"BE_aggregated","vg":1.0,"gen_type":"NU","fuel_type":"NU","substation_short_name_kV":"BE_aggregated_380","substation":"BE_aggregated_380","C02_emission":0,"qmin":-29.715,"ncost":2,"pmin":0.0,"zone":"BE00","model":2,"startup":0.0,"qg":0.0,"gen_bus":1,"NOx_emission":0,"source_id":["gen",1],"index":1,"pg":0.09,"substation_short_name":"BE_aggregated","pmax":59.43,"cost":[110,0.0],"gen_status":1,"qc2min":0.0,"SOx_emission":0,"inertia_constant":6,"type":"Nuclear"},"36":{"start_up_cost":0,"qc1max":0.0,"substation_full_name_kV":"BANK ZONDER NAAM_220","mbase":100.0,"pc2":0.0,"qmax":1.185,"pc1":0.0,"name":"Mermaid Offshore WP","installed_capacity":2.37,"owner":"Eneco Energy Trade","substation_full_name":"BANK ZONDER NAAM","vg":1.0,"gen_type":"WOFF","fuel_type":"missing","substation_short_name_kV":"ZNAAM_220","substation":"ZNAAM","C02_emission":0,"qmin":-1.185,"qc1min":0.0,"ncost":2,"pmin":0.0,"zone":"BE00","model":2,"startup":0.0,"qc2max":0.0,"qg":0.0,"gen_bus":66,"NOx_emission":0,"ramp_10":0.0,"source_id":["gen",36],"index":36,"ramp_q":0.0,"ramp_30":0.0,"apf":0.0,"pg":2.37,"shutdown":0.0,"substation_short_name":"ZNAAM","ramp_agc":0.0,"pmax":2.37,"cost":[59,0.0],"gen_status":1,"qc2min":0.0,"SOx_emission":0,"inertia_constant":0,"type":"Offshore Wind"},"37":{"start_up_cost":0,"qc1max":0.0,"substation_full_name_kV":"BANK ZONDER NAAM_220","mbase":100.0,"pc2":0.0,"qmax":1.26,"pc1":0.0,"name":"Seastar Offshore WP","installed_capacity":2.52,"owner":"Eneco Energy Trade","substation_full_name":"BANK ZONDER NAAM","vg":1.0,"gen_type":"WOFF","fuel_type":"missing","substation_short_name_kV":"ZNAAM_220","substation":"ZNAAM","C02_emission":0,"qmin":-1.26,"qc1min":0.0,"ncost":2,"pmin":0.0,"zone":"BE00","model":2,"startup":0.0,"qc2max":0.0,"qg":0.0,"gen_bus":66,"NOx_emission":0,"ramp_10":0.0,"source_id":["gen",37],"index":37,"ramp_q":0.0,"ramp_30":0.0,"apf":0.0,"pg":2.52,"shutdown":0.0,"substation_short_name":"ZNAAM","ramp_agc":0.0,"pmax":2.52,"cost":[59,0.0],"gen_status":1,"qc2min":0.0,"SOx_emission":0,"inertia_constant":0,"type":"Offshore Wind"},"9":{"start_up_cost":0,"substation_full_name_kV":"BE_aggregated_380","mbase":100.0,"qmax":16.095833333333353,"name":"Onshore Wind","installed_capacity":32.191666666666706,"substation_full_name":"BE_aggregated","vg":1.0,"gen_type":"WON","fuel_type":"Wind_onshore","substation_short_name_kV":"BE_aggregated_380","substation":"BE_aggregated_380","C02_emission":0,"qmin":-16.095833333333353,"ncost":2,"pmin":0.0,"zone":"BE00","model":2,"startup":0.0,"qg":0.0,"gen_bus":1,"NOx_emission":0,"source_id":["gen",1],"index":1,"pg":0.09,"substation_short_name":"BE_aggregated","pmax":32.191666666666706,"cost":[25,0.0],"gen_status":1,"qc2min":0.0,"SOx_emission":0,"inertia_constant":0,"type":"Onshore Wind"},"30":{"start_up_cost":0,"qc1max":0.0,"substation_full_name_kV":"BANK ZONDER NAAM_220","mbase":100.0,"pc2":0.0,"qmax":1.08,"pc1":0.0,"name":"Northwind","installed_capacity":2.16,"owner":"Electrabel","substation_full_name":"BANK ZONDER NAAM","vg":1.0,"gen_type":"WOFF","fuel_type":"missing","substation_short_name_kV":"ZNAAM_220","substation":"ZNAAM","C02_emission":0,"qmin":-1.08,"qc1min":0.0,"ncost":2,"pmin":0.0,"zone":"BE00","model":2,"startup":0.0,"qc2max":0.0,"qg":0.0,"gen_bus":66,"NOx_emission":0,"ramp_10":0.0,"source_id":["gen",30],"index":30,"ramp_q":0.0,"ramp_30":0.0,"apf":0.0,"pg":2.16,"shutdown":0.0,"substation_short_name":"ZNAAM","ramp_agc":0.0,"pmax":2.16,"cost":[59,0.0],"gen_status":1,"qc2min":0.0,"SOx_emission":0,"inertia_constant":0,"type":"Offshore Wind"},"3":{"start_up_cost":0,"substation_full_name_kV":"BE_aggregated_380","mbase":100.0,"qmax":49.995,"name":"VOLL","installed_capacity":99.99,"substation_full_name":"BE_aggregated","vg":1.0,"gen_type":"VOLL","fuel_type":"VOLL","substation_short_name_kV":"BE_aggregated_380","substation":"BE_aggregated_380","C02_emission":0,"qmin":-49.995,"ncost":2,"pmin":0.0,"zone":"BE00","model":2,"startup":0.0,"qg":0.0,"gen_bus":1,"NOx_emission":0,"source_id":["gen",1],"index":1,"pg":0.09,"substation_short_name":"BE_aggregated","pmax":99.99,"cost":[10000,0.0],"gen_status":1,"qc2min":0.0,"SOx_emission":0,"inertia_constant":0,"type":"VOLL"}},"branch":{"40":{"br_r":9.002770083102494e-5,"f_bus_name_kV":"GEZEL_380","rate_a":30.565847011329492,"shift":0.0,"rate_b":30.565847011329492,"length":8,"f_bus_name":"GEZEL","base_kV":380,"t_bus_full_name_kV":"OFFSHORE ON STEVIN_380","f_bus_full_name":"GEZELLE","br_x":0.0013157894736842105,"rate_c":30.565847011329492,"g_to":0.0,"t_bus_full_name":"OFFSHORE ON STEVIN","g_fr":0.0,"source_id":["branch",40],"b_fr":0.0,"f_bus":26,"br_status":1,"f_bus_full_name_kV":"GEZELLE_380","wC":1.275623268698061,"t_bus":27,"b_to":0.0,"index":40,"angmin":-1.0472,"angmax":1.0472,"transformer":false,"interconnection":false,"t_bus_name":"STEVN","tap":1.0,"t_bus_name_kV":"STEVN_380"},"1":{"br_r":0.0007894736842105263,"f_bus_name_kV":"GEZEL_380","rate_a":200.0,"shift":0.0,"rate_b":13.157004344454704,"length":36.9,"f_bus_name":"GEZEL","base_kV":380,"t_bus_full_name_kV":"BE_aggregated_380","f_bus_full_name":"GEZELLE","br_x":0.008379501385041552,"rate_c":13.157004344454704,"g_to":0.0,"t_bus_full_name":"BE_aggregated","g_fr":0.0,"source_id":["branch",1],"b_fr":0.0,"f_bus":26,"br_status":1,"f_bus_full_name_kV":"GEZELLE_380","wC":9.797091412742382,"t_bus":1,"b_to":0.0,"index":1,"angmin":-1.0472,"angmax":1.0472,"transformer":false,"interconnection":false,"t_bus_name":"BE_aggregated","tap":1.0,"t_bus_name_kV":"BE_aggregated_380"},"93":{"br_r":0.0012257617728531857,"f_bus_name_kV":"STEVN_220","rate_a":38.29564335534787,"shift":0.0,"rate_b":38.29564335534787,"length":45.4,"f_bus_name":"STEVN","base_kV":220,"t_bus_full_name_kV":"BANK ZONDER NAAM_220","f_bus_full_name":"OFFSHORE ON STEVIN","br_x":0.0038434903047091414,"rate_c":38.29564335534787,"g_to":0.0,"t_bus_full_name":"BANK ZONDER NAAM","g_fr":0.0,"source_id":["branch",93],"b_fr":0.0,"f_bus":61,"br_status":1,"f_bus_full_name_kV":"OFFSHORE ON STEVIN_220","wC":186.92036011080333,"t_bus":66,"b_to":0.0,"index":93,"angmin":-1.0472,"angmax":1.0472,"transformer":false,"interconnection":false,"t_bus_name":"ZNAAM","tap":1.0,"t_bus_name_kV":"ZNAAM_220"},"176":{"br_r":0.0007894736842105263,"f_bus_name_kV":"OFFSHORE ON STEVIN_380","rate_a":138.56406460551017,"shift":0.0,"base_kV":220,"length":36.9,"f_bus_name":"OFFSHORE ON STEVIN","rate_b":13.157004344454704,"t_bus_full_name_kV":"OFFSHORE ON STEVIN_220","f_bus_full_name":"OFFSHORE ON STEVIN","br_x":0.008379501385041552,"rate_c":13.157004344454704,"g_to":0.0,"t_bus_full_name":"OFFSHORE ON STEVIN","g_fr":0.0,"source_id":["branch",176],"b_fr":0.0,"f_bus":27,"br_status":1,"f_bus_full_name_kV":"OFFSHORE ON STEVIN_380","wC":9.797091412742382,"t_bus":60,"b_to":0.0,"index":176,"angmin":-1.0472,"angmax":1.0472,"transformer":false,"interconnection":false,"t_bus_name":"OFFSHORE ON STEVIN","tap":1.0,"t_bus_name_kV":"OFFSHORE ON STEVIN_220"},"42":{"br_r":6.9252077562326875e-6,"f_bus_name_kV":"GEZEL_380","rate_a":10.761231667425434,"shift":0.0,"rate_b":10.761231667425434,"length":0.8,"f_bus_name":"GEZEL","base_kV":380,"t_bus_full_name_kV":"NEMO_380","f_bus_full_name":"GEZELLE","br_x":4.847645429362881e-5,"rate_c":10.761231667425434,"g_to":0.0,"t_bus_full_name":"NEMO","g_fr":0.0,"source_id":["branch",42],"b_fr":0.0,"f_bus":26,"br_status":1,"f_bus_full_name_kV":"GEZELLE_380","wC":3.8912742382271466,"t_bus":28,"b_to":0.0,"index":42,"angmin":-1.0472,"angmax":1.0472,"transformer":false,"interconnection":false,"t_bus_name":"NEMO ","tap":1.0,"t_bus_name_kV":"NEMO _380"},"41":{"br_r":9.002770083102494e-5,"f_bus_name_kV":"GEZEL_380","rate_a":30.565847011329492,"shift":0.0,"rate_b":30.565847011329492,"length":8,"f_bus_name":"GEZEL","base_kV":380,"t_bus_full_name_kV":"OFFSHORE ON STEVIN_380","f_bus_full_name":"GEZELLE","br_x":0.0013157894736842105,"rate_c":30.565847011329492,"g_to":0.0,"t_bus_full_name":"OFFSHORE ON STEVIN","g_fr":0.0,"source_id":["branch",41],"b_fr":0.0,"f_bus":26,"br_status":1,"f_bus_full_name_kV":"GEZELLE_380","wC":1.275623268698061,"t_bus":27,"b_to":0.0,"index":41,"angmin":-1.0472,"angmax":1.0472,"transformer":false,"interconnection":false,"t_bus_name":"STEVN","tap":1.0,"t_bus_name_kV":"STEVN_380"},"84":{"br_r":0.0013781163434903048,"f_bus_name_kV":"OS2ST_220","rate_a":38.14322288428181,"shift":0.0,"rate_b":38.14322288428181,"length":40.9,"f_bus_name":"OS2ST","base_kV":220,"t_bus_full_name_kV":"OFFSHORE ON STEVIN_220","f_bus_full_name":"OFFSHORE ON STEVIN","br_x":0.003164819944598338,"rate_c":38.14322288428181,"g_to":0.0,"t_bus_full_name":"OFFSHORE ON STEVIN","g_fr":0.0,"source_id":["branch",84],"b_fr":0.0,"f_bus":60,"br_status":1,"f_bus_full_name_kV":"OFFSHORE ON STEVIN_220","wC":199.74653739612188,"t_bus":61,"b_to":0.0,"index":84,"angmin":-1.0472,"angmax":1.0472,"transformer":false,"interconnection":false,"t_bus_name":"STEVN","tap":1.0,"t_bus_name_kV":"STEVN_220"}},"storage":{},"switch":{},"baseMVA":100,"convdc":{"1":{"dVdcset":0,"Vtar":1,"Pacmax":0.0015,"filter":1,"reactor":1,"Vdcset":1.0079,"Vmmax":1.1,"xtf":0.01,"Imax":1.118033988749895,"Qacrated":5.0e-5,"status":1,"Pdcset":-5.86274e-5,"islcc":0,"LossA":1.103e-6,"Qacmin":-5.0e-5,"rc":0.01,"source_id":["convdc",1],"rtf":0.01,"xc":0.01,"busdc_i":1,"busac_i":28,"tm":1,"type_dc":1,"Q_g":0.0,"LossB":1.1796789432875028e-9,"basekVac":525,"LossCrec":5.103007808703222e-12,"droop":0.005,"Pacmin":-0.0015,"Qacmax":5.0e-5,"index":1,"type_ac":1,"Vmmin":0.9,"P_g":0.0,"transformer":1,"bf":0.01,"LossCinv":5.103007808703222e-12,"Pacrated":0.0015},"3":{"dVdcset":0,"Vtar":1,"Pacmax":0.0015,"filter":1,"reactor":1,"Vdcset":1.0079,"Vmmax":1.1,"xtf":0.01,"Imax":1.118033988749895,"Qacrated":5.0e-5,"status":1,"Pdcset":-5.86274e-5,"islcc":0,"LossA":1.103e-6,"Qacmin":-5.0e-5,"rc":0.01,"source_id":["convdc",3],"rtf":0.01,"xc":0.01,"busdc_i":3,"busac_i":128,"tm":1,"type_dc":1,"Q_g":0.0,"LossB":1.1796789432875028e-9,"basekVac":525,"LossCrec":5.103007808703222e-12,"droop":0.005,"Pacmin":-0.0015,"Qacmax":5.0e-5,"index":3,"type_ac":1,"Vmmin":0.9,"P_g":0.0,"transformer":1,"bf":0.01,"LossCinv":5.103007808703222e-12,"Pacrated":0.0015}},"per_unit":true,"shunt":{},"load":{"1":{"zone":"BE00","power_portion":1.0,"name_no_kV":"BE_aggregated","base_kV":380,"cosphi":0.9,"name":"BE_aggregated_380","full_name_kV":"BE_aggregated_380","min_tap":1,"status":1,"pmax":150.0,"qd":8.557500000000001,"source_id":["bus",1],"load_bus":1,"full_name":"BE_aggregated","qd_max":0.22,"index":1,"pmin":0.0,"pd":141.225}},"branchdc":{"1":{"c":0,"r":0.052,"status":1,"interconnector":true,"rateB":0.0014000000000000002,"fbusdc":1,"source_id":["branchdc",1],"rateA":0.0014000000000000002,"HVDC_link":"NEMO","l":0,"index":1,"rateC":0.0014000000000000002,"tbusdc":3}},"busdc":{"1":{"lat":51.2749,"Vdc":1,"lon":3.22925,"Cdc":0,"basekVdc":525,"source_id":["busdc",1],"busdc_i":1,"bus_name":"BE_NEMO","grid":1,"index":1,"Vdcmax":1.1,"Vdcmin":0.9,"Pdc":0.0},"3":{"lat":51.3,"Vdc":1,"lon":1.33,"Cdc":0,"basekVdc":525,"source_id":["busdc",3],"busdc_i":3,"bus_name":"UK_NEMO","grid":1,"index":3,"Vdcmax":1.1,"Vdcmin":0.9,"Pdc":0.0}}}